# Molecule Name
# Created by GaussView 5.0.8
#

#
#

@<TRIPOS>MOLECULE
Molecule Name
54 53
SMALL
NO_CHARGES


@<TRIPOS>ATOM
1 C1    -1.8557    -6.7204     1.3012 C
2 C2    -0.6734    -7.7060     1.2152 C
3 H3    -1.0042    -8.6173     0.7619 H
4 H4    -0.3067    -7.9092     2.1997 H
5 C5     0.4579    -7.0927     0.3681 C
6 H6     0.0975    -6.8889    -0.6187 H
7 H7     1.2720    -7.7840     0.3154 H
8 C8     0.9420    -5.7813     1.0176 C
9 H9     0.1326    -5.0825     1.0590 H
10 H10     1.2919    -5.9805     2.0081 H
11 C11     2.0924    -5.1948     0.1772 C
12 H12     2.8954    -5.9004     0.1383 H
13 H13     1.7426    -4.9957    -0.8145 H
14 C14     2.5960    -3.8849     0.8155 C
15 H15     2.9380    -4.0782     1.8104 H
16 H16     1.7977    -3.1724     0.8458 H
17 C17     4.2714    -2.0092     0.5842 C
18 H18     3.4767    -1.2912     0.6042 H
19 H19     5.0769    -1.6356    -0.0114 H
20 C20     4.7689    -2.2554     2.0202 C
21 H21     4.3182    -3.0177     2.6220 H
22 C22     5.7816    -1.5015     2.5186 C
23 H23     6.1134    -1.6461     3.5248 H
24 C24     6.4484    -0.4355     1.6299 C
25 H25     6.4196    -0.7576     0.6087 H
26 H26     5.9215     0.4910     1.7258 H
27 C27     7.9138    -0.2401     2.0677 C
28 H28     8.4409    -1.1669     1.9810 H
29 H29     7.9418     0.0913     3.0853 H
30 C30     8.5753     0.8135     1.1626 C
31 H31     8.0466     1.7405     1.2494 H
32 H32     8.5426     0.4766     0.1485 H
33 C33    10.0416     1.0211     1.5839 C
34 H34    10.0796     1.3690     2.5956 H
35 H35    10.5716     0.0949     1.5065 H
36 C36    10.6871     2.0626     0.6516 C
37 H37    10.1547     2.9882     0.7265 H
38 H38    10.6453     1.7070    -0.3567 H
39 C39    12.1561     2.2829     1.0546 C
40 H40    12.1995     2.6486     2.0591 H
41 H41    12.6880     1.3565     0.9892 H
42 C42    12.7980     3.3090     0.1021 C
43 H43    12.2646     4.2346     0.1622 H
44 H44    12.7567     2.9374    -0.9002 H
45 C45    14.2664     3.5369     0.5045 C
46 H46    14.7129     4.2461    -0.1620 H
47 H47    14.3072     3.9138     1.5062 H
48 H48    14.7995     2.6097     0.4501 H
49 O49    -3.1905    -7.2188     1.4454 O
50 H50    -3.8076    -6.6121     1.0293 H
51 O51    -1.6203    -5.3108     1.2384 O
52 C52     3.7573    -3.3275    -0.0286 C
53 H53     3.4140    -3.1430    -1.0257 H
54 H54     4.5526    -4.0430    -0.0499 H
@<TRIPOS>BOND
1 1 2 1
2 1 49 1
3 1 51 2
4 2 3 1
5 2 4 1
6 2 5 1
7 5 6 1
8 5 7 1
9 5 8 1
10 8 9 1
11 8 10 1
12 8 11 1
13 11 12 1
14 11 13 1
15 11 14 1
16 14 15 1
17 14 16 1
18 14 52 1
19 17 18 1
20 17 19 1
21 17 20 1
22 17 52 1
23 20 21 1
24 20 22 2
25 22 23 1
26 22 24 1
27 24 25 1
28 24 26 1
29 24 27 1
30 27 28 1
31 27 29 1
32 27 30 1
33 30 31 1
34 30 32 1
35 30 33 1
36 33 34 1
37 33 35 1
38 33 36 1
39 36 37 1
40 36 38 1
41 36 39 1
42 39 40 1
43 39 41 1
44 39 42 1
45 42 43 1
46 42 44 1
47 42 45 1
48 45 46 1
49 45 47 1
50 45 48 1
51 49 50 1
52 52 53 1
53 52 54 1
