# Molecule Name
# Created by GaussView 5.0.8
#

#
#

@<TRIPOS>MOLECULE
Molecule Name
56 55
SMALL
NO_CHARGES


@<TRIPOS>ATOM
1 C1    -1.9484    -6.0403     1.9381 C
2 C2    -1.1247    -7.2181     1.3872 C
3 H3    -1.7789    -7.9375     0.9451 H
4 H4    -0.5794    -7.6741     2.1877 H
5 C5    -0.1352    -6.6970     0.3285 C
6 H6    -0.6745    -6.2394    -0.4741 H
7 H7     0.4436    -7.5118    -0.0506 H
8 C8     0.7948    -5.6581     0.9807 C
9 H9     0.2103    -4.8453     1.3533 H
10 H10     1.3280    -6.1170     1.7868 H
11 C11     1.8024    -5.1287    -0.0544 C
12 H12     2.3925    -5.9380    -0.4294 H
13 H13     1.2785    -4.6669    -0.8654 H
14 C14     2.7140    -4.0947     0.6260 C
15 H15     3.2302    -4.5557     1.4421 H
16 H16     2.1187    -3.2842     0.9925 H
17 C17     4.6235    -2.5135     0.3152 C
18 H18     4.0113    -1.7102     0.6652 H
19 H19     5.3476    -2.1355    -0.3756 H
20 C20     5.3428    -3.1662     1.5112 C
21 H21     4.6191    -3.5579     2.1942 H
22 C22     6.2021    -2.1059     2.2284 C
23 H23     5.5723    -1.3137     2.5733 H
24 C24     7.2440    -1.5408     1.2469 C
25 H25     7.8843    -2.3293     0.9120 H
26 H26     6.7411    -1.1098     0.4083 H
27 C27     8.0836    -0.4573     1.9502 C
28 H28     8.5909    -0.8822     2.7910 H
29 H29     7.4383     0.3284     2.2826 H
30 C30     9.1166     0.1120     0.9556 C
31 H31     8.6050     0.5155     0.1073 H
32 H32     9.7749    -0.6687     0.6391 H
33 C33     9.9341     1.2305     1.6315 C
34 H34     9.2739     2.0113     1.9490 H
35 H35    10.4534     0.8388     2.4808 H
36 C36    10.9482     1.7970     0.6170 C
37 H37    10.4253     2.1745    -0.2353 H
38 H38    11.6173     1.0206     0.3105 H
39 C39    11.7495     2.9401     1.2733 C
40 H40    11.0768     3.7105     1.5828 H
41 H41    12.2772     2.5641     2.1248 H
42 C42    12.7580     3.5145     0.2566 C
43 H43    12.2333     3.8895    -0.5956 H
44 H44    13.4313     2.7422    -0.0511 H
45 C45    13.5557     4.6632     0.9114 C
46 H46    14.2591     5.0546     0.2053 H
47 H47    12.8831     5.4407     1.2129 H
48 H48    14.0795     4.2937     1.7696 H
49 O49    -3.2733    -6.2599     2.4255 O
50 H50    -3.7960    -5.4634     2.3036 H
51 O51    -1.4518    -4.8829     1.9614 O
52 C52     3.7396    -3.5586    -0.3832 C
53 H53     3.2319    -3.1034    -1.2073 H
54 H54     4.3472    -4.3634    -0.7410 H
55 H55     6.7027    -2.5520     3.0630 H
56 H56     5.9690    -3.9626     1.1627 H
@<TRIPOS>BOND
1 1 2 1
2 1 49 1
3 1 51 2
4 2 3 1
5 2 4 1
6 2 5 1
7 5 6 1
8 5 7 1
9 5 8 1
10 8 9 1
11 8 10 1
12 8 11 1
13 11 12 1
14 11 13 1
15 11 14 1
16 14 15 1
17 14 16 1
18 14 52 1
19 17 18 1
20 17 19 1
21 17 20 1
22 17 52 1
23 20 21 1
24 20 22 1
25 20 56 1
26 22 23 1
27 22 24 1
28 22 55 1
29 24 25 1
30 24 26 1
31 24 27 1
32 27 28 1
33 27 29 1
34 27 30 1
35 30 31 1
36 30 32 1
37 30 33 1
38 33 34 1
39 33 35 1
40 33 36 1
41 36 37 1
42 36 38 1
43 36 39 1
44 39 40 1
45 39 41 1
46 39 42 1
47 42 43 1
48 42 44 1
49 42 45 1
50 45 46 1
51 45 47 1
52 45 48 1
53 49 50 1
54 52 53 1
55 52 54 1
