# Molecule Name
# Created by GaussView 5.0.8
#

#
#

@<TRIPOS>MOLECULE
Molecule Name
54 52
SMALL
NO_CHARGES


@<TRIPOS>ATOM
1 C1    -1.9774    -5.9581     1.7700 C
2 C2    -1.0874    -7.2095     1.8784 C
3 H3    -1.6528    -8.0733     1.5961 H
4 H4    -0.7463    -7.3204     2.8866 H
5 C5     0.1254    -7.0607     0.9394 C
6 H6    -0.2169    -6.9435    -0.0677 H
7 H7     0.7373    -7.9355     1.0092 H
8 C8     0.9528    -5.8244     1.3482 C
9 H9     0.3447    -4.9468     1.2784 H
10 H10     1.2949    -5.9416     2.3554 H
11 C11     2.1658    -5.6876     0.4068 C
12 H12     2.7681    -6.5696     0.4739 H
13 H13     1.8228    -5.5646    -0.5991 H
14 C14     3.0091    -4.4627     0.8149 C
15 H15     3.3534    -4.5863     1.8202 H
16 H16     2.4129    -3.5767     0.7491 H
17 C17     5.0886    -3.1350     0.2669 C
18 H18     4.5112    -2.2370     0.1992 H
19 H19     5.9268    -3.0720    -0.3951 H
20 C20     5.5908    -3.3126     1.7140 C
21 H21     4.9775    -2.7687     2.4410 H
22 C22     6.8010    -2.8203     2.0811 C
23 H23     6.1961    -2.2662     2.8141 H
24 C24     7.3037    -2.9971     3.5267 C
25 H25     6.9623    -2.1774     4.1220 H
26 H26     6.9240    -3.9134     3.9283 H
27 C27     8.8443    -3.0266     3.5417 C
28 H28     9.2203    -2.1144     3.1278 H
29 H29     9.1944    -3.8532     2.9594 H
30 C30     9.3378    -3.1691     4.9952 C
31 H31     8.9719    -4.0858     5.4089 H
32 H32     8.9748    -2.3460     5.5747 H
33 C33    10.8788    -3.1683     5.0206 C
34 H34    11.2470    -3.9915     4.4446 H
35 H35    11.2401    -2.2514     4.6039 H
36 C36    11.3698    -3.2966     6.4761 C
37 H37    11.0193    -4.2186     6.8905 H
38 H38    10.9901    -2.4788     7.0521 H
39 C39    12.9107    -3.2697     6.5067 C
40 H40    13.2947    -4.0848     5.9286 H
41 H41    13.2575    -2.3456     6.0941 H
42 C42    13.3991    -3.3975     7.9635 C
43 H43    13.0565    -4.3248     8.3743 H
44 H44    13.0124    -2.5861     8.5435 H
45 C45    14.9382    -3.3580     7.9942 C
46 H46    15.2784    -3.4511     9.0049 H
47 H47    15.3273    -4.1665     7.4115 H
48 H48    15.2788    -2.4288     7.5873 H
49 O49    -3.3880    -6.0631     1.9847 O
50 H50    -3.8434    -5.4029     1.4567 H
51 O51    -1.4632    -4.8437     1.4919 O
52 C52     4.2177    -4.3444    -0.1329 C
53 H53     3.8691    -4.2142    -1.1367 H
54 H54     4.8036    -5.2368    -0.0702 H
@<TRIPOS>BOND
1 1 2 1
2 1 49 1
3 1 51 2
4 2 3 1
5 2 4 1
6 2 5 1
7 5 6 1
8 5 7 1
9 5 8 1
10 8 9 1
11 8 10 1
12 8 11 1
13 11 12 1
14 11 13 1
15 11 14 1
16 14 15 1
17 14 16 1
18 14 52 1
19 17 18 1
20 17 19 1
21 17 20 1
22 17 52 1
23 20 22 2
24 21 23 1
25 22 24 1
26 24 25 1
27 24 26 1
28 24 27 1
29 27 28 1
30 27 29 1
31 27 30 1
32 30 31 1
33 30 32 1
34 30 33 1
35 33 34 1
36 33 35 1
37 33 36 1
38 36 37 1
39 36 38 1
40 36 39 1
41 39 40 1
42 39 41 1
43 39 42 1
44 42 43 1
45 42 44 1
46 42 45 1
47 45 46 1
48 45 47 1
49 45 48 1
50 49 50 1
51 52 53 1
52 52 54 1
