# 
# Created by GaussView 5.0.8
#

#
#

@<TRIPOS>MOLECULE
Molecule Name
54 53
SMALL
NO_CHARGES


@<TRIPOS>ATOM
1 C1     0.9857    -3.6504    -5.4854 C
2 C2     0.2364    -2.4154    -4.9530 C
3 H3    -0.7384    -2.3728    -5.3899 H
4 H4     0.7797    -1.5292    -5.2085 H
5 C5     0.1125    -2.5189    -3.4224 C
6 H6    -0.4292    -3.4066    -3.1663 H
7 H7    -0.4075    -1.6633    -3.0454 H
8 C8     1.5213    -2.5783    -2.8076 C
9 H9     2.0397    -3.4341    -3.1874 H
10 H10     2.0585    -1.6907    -3.0675 H
11 C11     1.4176    -2.6842    -1.2748 C
12 H12     0.8991    -1.8310    -0.8894 H
13 H13     0.8828    -3.5735    -1.0128 H
14 C14     2.8363    -2.7380    -0.6821 C
15 H15     3.3612    -1.8421    -0.9430 H
16 H16     3.3531    -3.5853    -1.0800 H
17 C17     4.2042    -2.9069     1.4052 C
18 H18     4.7169    -3.7467     0.9834 H
19 H19     4.1808    -3.0025     2.4703 H
20 C20     4.9368    -1.6081     1.0183 C
21 H21     4.6444    -1.0770     0.1374 H
22 C22     5.9518    -1.1334     1.7804 C
23 H23     6.2595    -1.6601     2.6598 H
24 C24     6.6660     0.1677     1.3637 C
25 H25     6.5951     0.2829     0.3027 H
26 H26     6.2041     1.0050     1.8456 H
27 C27     8.1508     0.0871     1.7663 C
28 H28     8.5945    -0.7620     1.2899 H
29 H29     8.2318    -0.0155     2.8292 H
30 C30     8.8882     1.3643     1.3138 C
31 H31     8.4718     2.2174     1.8095 H
32 H32     8.7826     1.4803     0.2551 H
33 C33    10.3830     1.2324     1.6621 C
34 H34    10.4965     1.1205     2.7191 H
35 H35    10.7810     0.3721     1.1659 H
36 C36    11.1494     2.4843     1.1956 C
37 H37    10.7769     3.3475     1.7067 H
38 H38    11.0188     2.6111     0.1414 H
39 C39    12.6477     2.2978     1.5053 C
40 H40    12.7790     2.1707     2.5597 H
41 H41    13.0071     1.4307     0.9925 H
42 C42    13.4415     3.5336     1.0346 C
43 H43    13.0927     4.4015     1.5522 H
44 H44    13.3042     3.6679    -0.0191 H
45 C45    14.9383     3.3216     1.3326 C
46 H46    15.4925     4.1773     1.0076 H
47 H47    15.0774     3.1866     2.3841 H
48 H48    15.2850     2.4544     0.8131 H
49 O49     0.7184    -4.1410    -6.8013 O
50 H50     0.8607    -5.0909    -6.8248 H
51 O51     1.8347    -4.2300    -4.7613 O
52 C52     2.7687    -2.8610     0.8515 C
53 H53     2.2505    -3.7589     1.1173 H
54 H54     2.2520    -2.0190     1.2603 H
@<TRIPOS>BOND
1 1 2 1
2 1 49 1
3 1 51 2
4 2 3 1
5 2 4 1
6 2 5 1
7 5 6 1
8 5 7 1
9 5 8 1
10 8 9 1
11 8 10 1
12 8 11 1
13 11 12 1
14 11 13 1
15 11 14 1
16 14 15 1
17 14 16 1
18 14 52 1
19 17 18 1
20 17 19 1
21 17 20 1
22 17 52 1
23 20 21 1
24 20 22 2
25 22 23 1
26 22 24 1
27 24 25 1
28 24 26 1
29 24 27 1
30 27 28 1
31 27 29 1
32 27 30 1
33 30 31 1
34 30 32 1
35 30 33 1
36 33 34 1
37 33 35 1
38 33 36 1
39 36 37 1
40 36 38 1
41 36 39 1
42 39 40 1
43 39 41 1
44 39 42 1
45 42 43 1
46 42 44 1
47 42 45 1
48 45 46 1
49 45 47 1
50 45 48 1
51 49 50 1
52 52 53 1
53 52 54 1
